/*--------------------------------*- C++ -*----------------------------------*\
  =========                 |
  \\      /  F ield         | OpenFOAM: The Open Source CFD Toolbox
   \\    /   O peration     | Website:  https://openfoam.org
    \\  /    A nd           | Version:  9
     \\/     M anipulation  |
\*---------------------------------------------------------------------------*/
FoamFile
{
    format      ascii;
    class       polyBoundaryMesh;
    location    "constant/polyMesh";
    object      boundary;
}
// * * * * * * * * * * * * * * * * * * * * * * * * * * * * * * * * * * * * * //

2
(
    top
    {
        type            wall;
        inGroups        List<word> 1(wall);
        nFaces          100;
        startFace       2700;
    }
    others
    {
        type            wall;
        inGroups        List<word> 1(wall);
        nFaces          500;
        startFace       2800;
    }
)

// ************************************************************************* //
